added this file in GH
new line...
dhkjdhfkjd
